monitoring/angle-monitoring/src/test/resources/testSimpleNetwork.xiidm
<?xml version="1.0" encoding="UTF-8"?>
<iidm:network xmlns:iidm="http://www.itesla_project.eu/schema/iidm/1_0" id="TestNetwork" caseDate="2019-03-11T08:38:49.764+01:00" forecastDistance="0" sourceFormat="code">
    <iidm:substation id="SUBSTATION_FR" name="French substation" country="FR">
        <iidm:voltageLevel id="VOLTAGE_LEVEL_FR" name="French voltage level" nominalV="400.0" topologyKind="BUS_BREAKER">
            <iidm:busBreakerTopology>
                <iidm:bus id="BUS_FR"/>
            </iidm:busBreakerTopology>
            <iidm:generator id="GENERATOR_FR" name="French generator" energySource="OTHER" minP="0.0" maxP="5000.0" voltageRegulatorOn="true" targetP="3000.0" targetV="400.0" bus="BUS_FR" connectableBus="BUS_FR">
                <iidm:minMaxReactiveLimits minQ="-1.7976931348623157E308" maxQ="1.7976931348623157E308"/>
            </iidm:generator>
            <iidm:load id="LOAD_FR" name="French load" loadType="UNDEFINED" p0="1800.0" q0="0.0" bus="BUS_FR" connectableBus="BUS_FR"/>
        </iidm:voltageLevel>
    </iidm:substation>
    <iidm:substation id="SUBSTATION_BE" name="Belgian substation" country="BE">
        <iidm:voltageLevel id="VOLTAGE_LEVEL_BE" name="Belgian voltage level" nominalV="400.0" topologyKind="BUS_BREAKER">
            <iidm:busBreakerTopology>
                <iidm:bus id="BUS_BE_1"/>
                <iidm:bus id="BUS_BE_2"/>
            </iidm:busBreakerTopology>
            <iidm:generator id="GENERATOR_BE" name="Belgian generator" energySource="OTHER" minP="0.0" maxP="5000.0" voltageRegulatorOn="true" targetP="1000.0" targetV="400.0" bus="BUS_BE_1" connectableBus="BUS_BE_1">
                <iidm:minMaxReactiveLimits minQ="-1.7976931348623157E308" maxQ="1.7976931348623157E308"/>
            </iidm:generator>
            <iidm:load id="LOAD_BE" name="Belgian load" loadType="UNDEFINED" p0="2200.0" q0="0.0" bus="BUS_BE_1" connectableBus="BUS_BE_1"/>
        </iidm:voltageLevel>
        <iidm:twoWindingsTransformer id="PST_BE" name="Belgian phase shift transformer" r="0.0" x="5.0" g="0.0" b="0.0" ratedU1="400.0" ratedU2="400.0" bus1="BUS_BE_1" connectableBus1="BUS_BE_1" voltageLevelId1="VOLTAGE_LEVEL_BE" bus2="BUS_BE_2" connectableBus2="BUS_BE_2" voltageLevelId2="VOLTAGE_LEVEL_BE">
            <iidm:phaseTapChanger lowTapPosition="-6" tapPosition="-4" regulationMode="FIXED_TAP">
                <iidm:step r="0.0" x="0.0" g="0.0" b="0.0" rho="1.0" alpha="-0.9"/>
                <iidm:step r="0.0" x="0.0" g="0.0" b="0.0" rho="1.0" alpha="-0.75"/>
                <iidm:step r="0.0" x="0.0" g="0.0" b="0.0" rho="1.0" alpha="-0.6"/>
                <iidm:step r="0.0" x="0.0" g="0.0" b="0.0" rho="1.0" alpha="-0.45"/>
                <iidm:step r="0.0" x="0.0" g="0.0" b="0.0" rho="1.0" alpha="-0.3"/>
                <iidm:step r="0.0" x="0.0" g="0.0" b="0.0" rho="1.0" alpha="-0.15"/>
                <iidm:step r="0.0" x="0.0" g="0.0" b="0.0" rho="1.0" alpha="0.0"/>
                <iidm:step r="0.0" x="0.0" g="0.0" b="0.0" rho="1.0" alpha="0.15"/>
                <iidm:step r="0.0" x="0.0" g="0.0" b="0.0" rho="1.0" alpha="0.3"/>
                <iidm:step r="0.0" x="0.0" g="0.0" b="0.0" rho="1.0" alpha="0.45"/>
                <iidm:step r="0.0" x="0.0" g="0.0" b="0.0" rho="1.0" alpha="0.6"/>
                <iidm:step r="0.0" x="0.0" g="0.0" b="0.0" rho="1.0" alpha="0.75"/>
                <iidm:step r="0.0" x="0.0" g="0.0" b="0.0" rho="1.0" alpha="0.9"/>
            </iidm:phaseTapChanger>
        </iidm:twoWindingsTransformer>
    </iidm:substation>
    <iidm:line id="FRANCE_BELGIUM_1" name="France-Belgium interconnection n°1" r="0.0" x="10.0" g1="0.0" b1="0.0" g2="0.0" b2="0.0" bus1="BUS_BE_1" connectableBus1="BUS_BE_1" voltageLevelId1="VOLTAGE_LEVEL_BE" bus2="BUS_FR" connectableBus2="BUS_FR" voltageLevelId2="VOLTAGE_LEVEL_FR">
        <iidm:currentLimits1 permanentLimit="721.6878364870322"/>
        <iidm:currentLimits2 permanentLimit="721.6878364870322"/>
    </iidm:line>
    <iidm:line id="FRANCE_BELGIUM_2" name="France-Belgium interconnection n°2" r="0.0" x="5.0" g1="0.0" b1="0.0" g2="0.0" b2="0.0" bus1="BUS_BE_2" connectableBus1="BUS_BE_2" voltageLevelId1="VOLTAGE_LEVEL_BE" bus2="BUS_FR" connectableBus2="BUS_FR" voltageLevelId2="VOLTAGE_LEVEL_FR">
        <iidm:currentLimits1 permanentLimit="721.6878364870322"/>
        <iidm:currentLimits2 permanentLimit="721.6878364870322"/>
    </iidm:line>
</iidm:network>
